runs/ACsol_case14.txt
/ACsolution : case14
/Date : 08-29-2025 22:43:14 Mountain Daylight Time
/MachineName : Remi
/Processor : Intel64 Family 6 Model 158 Stepping 9, GenuineIntel
/OS : Windows 10 (Windows-10-10.0.26100-SP0)
/Cores : 4 physical cores, 8 logical processors
/RAM : 32 GB
AMPL Version 20250811 (MSVC 19.44.35213.0, 64-bit)
/Solver : Artelys Knitro 13.2.0
objvalue 8081.187606452443
voltages and angles:
bus 1 M 1.0599999985609525 A 0
bus 2 M 1.044331375044505 A -0.07113977100374495
bus 3 M 1.018801743857748 A -0.17360918386461227
bus 4 M 1.016619377908016 A -0.15128539405075123
bus 5 M 1.0182489954269034 A -0.12970256872122357
bus 6 M 1.0599999900058115 A -0.22118508382649368
bus 7 M 1.0473279951334242 A -0.19518474677878025
bus 8 M 1.0599999894439198 A -0.1816193855803844
bus 9 M 1.044646685586219 A -0.22675848645116845
bus 10 M 1.0399228820173931 A -0.2308398561807874
bus 11 M 1.0464121917377907 A -0.22828880874252047
bus 12 M 1.044892232906142 A -0.23590754172033188
bus 13 M 1.0400890567734187 A -0.23680617969109347
bus 14 M 1.024495573379297 A -0.24895227272136317
power flows and cs variables:
branch 1 f 1 t 2 Pft 1.2979981130449274 Ptf -1.268775794379007 Qft -0.12678110514255989 Qtf 0.15754553683682268 cft 1.1041912694378027 sft 0.0786846964532701
branch 2 f 1 t 5 Pft 0.6459130838372475 Ptf -0.6255231200226431 Qft 0.05496089712401885 Qtf -0.023936159522405416 cft 1.0702778840490261 sft 0.13960149749525358
branch 3 f 2 t 3 Pft 0.5570218128156234 Ptf -0.5436131282539709 Qft 0.00676569055483272 Qtf 0.003109408140351336 cft 1.0583856974775003 sft 0.10883334390735819
branch 4 f 2 t 4 Pft 0.48937938746733917 Ptf -0.4765927400069969 Qft 0.0036384688094106884 Qtf -0.0009510732817813093 cft 1.0582795578208315 sft 0.0849985434729994
branch 5 f 2 t 5 Pft 0.37270515656261005 Ptf -0.36534560127442495 Qft 0.026198090970768657 Qtf -0.04053290451555807 cft 1.0615663938525648 sft 0.06223946644494073
branch 6 f 3 t 4 Pft -0.11226077927699725 Ptf 0.11329527555361336 Qft 0.05185010031733198 Qtf -0.06246717014848472 cft 1.0354755260271467 sft -0.023119578687642327
branch 7 f 4 t 5 Pft -0.4917532503451861 Ptf 0.49507002380937903 Qft 0.12228204135692418 Qtf -0.11181991921625484 cft 1.0349305686683512 sft -0.02234019462367883
branch 8 f 4 t 7 Pft 0.22846795105334528 Ptf -0.22846795105335807 Qft -0.03395465658473775 Qtf 0.0442797786993816 cft 1.0637081469427339 sft 0.046726119128936525
branch 9 f 4 t 9 Pft 0.14858276374529086 Ptf -0.14858276374531462 Qft 0.01409085865807178 Qtf -0.0028351855740496056 cft 1.0589848005104654 sft 0.0800769599332718
branch 10 f 5 t 6 Pft 0.4197986974877235 Ptf -0.4197986974876762 Qft 0.16028898325423216 Qtf -0.11765599976358238 cft 1.0748305320827418 sft 0.09860342633604945
branch 11 f 6 t 11 Pft 0.06047181981625965 Ptf -0.06000143735261034 Qft 0.04367742138847 Qtf -0.042692381674753914 cft 1.1091689262510018 sft 0.007879363476468379
branch 12 f 6 t 12 Pft 0.0764069674118698 Ptf -0.0756923415237418 Qft 0.02635970006139775 Qtf -0.024872364218539108 cft 1.1074657235749845 sft 0.016305795599123502
branch 13 f 6 t 13 Pft 0.17091995140058444 Ptf -0.16885771137792566 Qft 0.07625505561803454 Qtf -0.07219386124505241 cft 1.1023598779316919 sft 0.017221470139799074
branch 14 f 7 t 8 Pft -0.08549170290641658 Ptf 0.08549170290642286 Qft -0.07476349689925711 Qtf 0.07683484673144562 cft 1.1100655193669131 sft -0.015059363471887879
branch 15 f 7 t 9 Pft 0.3139596539597569 Ptf -0.31395965395975434 Qft 0.030483718199837036 Qtf -0.020504661802783736 cft 1.093542415550483 sft 0.034538701534612595
branch 16 f 9 t 10 Pft 0.06524877175536238 Ptf -0.06509108880670175 Qft 0.033943080426741816 Qtf -0.033524211858389864 cft 1.086342943980305 sft 0.004433791826319371
branch 17 f 9 t 14 Pft 0.10229364594980937 Ptf -0.10096475616702344 Qft 0.03074123951402436 Qtf -0.02791451290354461 cft 1.0699723360285032 sft 0.0237506370396701
branch 18 f 10 t 11 Pft -0.024908911193296655 Ptf 0.025001437352485376 Qft -0.02447578814169125 Qtf 0.024692381674775218 cft 1.0881844413337316 sft -0.002776016153388079
branch 19 f 12 t 13 Pft 0.014692341523570795 Ptf -0.014632734036872071 Qft 0.008872364218570261 Qtf -0.0088184336351642 cft 1.0867805381381512 sft 0.0009766225203462423
branch 20 f 13 t 14 Pft 0.04849044541456564 Ptf -0.04803524383283829 Qft 0.02301229488020863 Qtf -0.022085487096462977 cft 1.0654880353196394 sft 0.012942153247389732
generation:
genid 1 bus 1 GP 1.943911196882175 GQ -0.07182020801854103
genid 2 bus 2 GP 0.3673305624666045 GQ 0.32114778717184783
genid 3 bus 3 GP 0.286126092469032 GQ 0.24495950845768333
genid 4 bus 6 GP 4.1140909261382904e-08 GQ 0.10363617730433052
genid 5 bus 8 GP 0.08549170290642286 GQ 0.07683484673144562
